/*--------------------------------*- C++ -*----------------------------------*\
| =========                 |                                                 |
| \\      /  F ield         | OpenFOAM: The Open Source CFD Toolbox           |
|  \\    /   O peration     | Version:  v2306                                 |
|   \\  /    A nd           | Website:  www.openfoam.com                      |
|    \\/     M anipulation  |                                                 |
\*---------------------------------------------------------------------------*/
FoamFile
{
    version     2.0;
    format      ascii;
    class       volScalarField;
    object      nut;
}
// * * * * * * * * * * * * * * * * * * * * * * * * * * * * * * * * * * * * * //

dimensions      [0 2 -1 0 0 0 0];

internalField   uniform 0;

boundaryField
{
    #includeEtc "caseDicts/setConstraintTypes"

    frontWall
    {
        type            calculated;
        value           uniform 0;
    }

    backWall
    {
        type            calculated;
        value           uniform 0;
    }

    inlet
    {
        type            calculated;
        value           uniform 0;
    }

    outlet
    {
        type            calculated;
        value           uniform 0;
    }

    lowerWall
    {
        type            nutkWallFunction;
        value           uniform 0;
    }

    upperWall
    {
        type            calculated;
        value           uniform 0;
    }

    // -<-<-<-<-<-<-<-< Patches created from createPatchDict >->->->->->->->->-

    backPlane
    {
        type            calculated;
        value           uniform 0;
    }

    frontPlane
    {
        type            calculated;
        value           uniform 0;
    }
    // -<-<-<-<-<-<-<-< Patches created from createPatchDict >->->->->->->->->-

    train
    {
        type            nutkWallFunction;
        value           uniform 0;
    }

    box_gallery
    {
        type            nutkWallFunction;
        value           uniform 0;
    }
}


// ************************************************************************* //
